           8
  -79.821881885500005     
 C    0.00000   0.00000   0.00000
 H    0.00000   0.00000   1.09259
 H    1.04993   0.00000  -0.30450
 H   -0.43608   0.94093  -0.34151
 C   -0.74163  -1.21873  -0.56770
 H   -1.75653  -0.96370  -0.88185
 H   -0.80282  -2.03473   0.15517
 H   -0.23719  -1.60926  -1.45544

