           8
  -79.824065279300001     
 C    0.00000   0.00000   0.00000
 H    0.00000   0.00000   1.09308
 H    1.04834   0.00000  -0.31130
 H   -0.44548   0.93578  -0.34521
 C   -0.73587  -1.21748  -0.55956
 H   -1.81923  -1.07303  -0.54273
 H   -0.49998  -2.12547   0.00009
 H   -0.46169  -1.39412  -1.60338

