           8
  -79.824080245499999     
 C    0.00000   0.00000   0.00000
 H    0.00000   0.00000   1.09299
 H    1.03649   0.00000  -0.34526
 H   -0.44968   0.94704  -0.31137
 C   -0.78675  -1.18606  -0.55824
 H   -1.08817  -1.01275  -1.59445
 H   -1.70673  -1.34599   0.01105
 H   -0.21014  -2.11306  -0.51682

