           8
  -79.820720036400004     
 C    0.00000   0.00000   0.00000
 H    0.00000   0.00000   1.09227
 H    1.04368   0.00000  -0.32172
 H   -0.43485   0.94961  -0.32017
 C   -0.77299  -1.20192  -0.57061
 H   -1.18100  -1.83429   0.22103
 H   -0.13533  -1.83636  -1.19046
 H   -1.61223  -0.88503  -1.19352

