           8
  -79.824066536700002     
 C    0.00000   0.00000   0.00000
 H    0.00000   0.00000   1.09295
 H    1.04871   0.00000  -0.31069
 H   -0.44448   0.93601  -0.34590
 C   -0.73637  -1.21873  -0.55666
 H   -0.51569  -2.11711   0.02537
 H   -0.47484  -1.40966  -1.59996
 H   -1.81992  -1.07694  -0.51043

