           8
  -79.824078067700000     
 C    0.00000   0.00000   0.00000
 H    0.00000   0.00000   1.09298
 H    1.03665   0.00000  -0.34502
 H   -0.44971   0.94692  -0.31169
 C   -0.78392  -1.18847  -0.55684
 H   -1.69115  -1.37397   0.02380
 H   -0.19060  -2.10598  -0.51002
 H   -1.06779  -1.03385  -1.60048
           8
  -79.821899246599997     
 C    0.00000   0.00000   0.00000
 H    0.00000   0.00000   1.09248
 H    1.03678   0.00000  -0.34248
 H   -0.44115   0.95296  -0.30424
 C   -0.79508  -1.18536  -0.56579
 H   -1.48871  -1.59404   0.17270
 H   -0.13186  -2.00746  -0.84790
 H   -1.36508  -0.91020  -1.45549
           8
  -79.820720036400004     
 C    0.00000   0.00000   0.00000
 H    0.00000   0.00000   1.09227
 H    1.04368   0.00000  -0.32172
 H   -0.43485   0.94961  -0.32017
 C   -0.77299  -1.20192  -0.57061
 H   -1.18100  -1.83429   0.22103
 H   -0.13533  -1.83636  -1.19046
 H   -1.61223  -0.88503  -1.19352
           8
  -79.821885795300005     
 C    0.00000   0.00000   0.00000
 H    0.00000   0.00000   1.09246
 H    1.05017   0.00000  -0.30391
 H   -0.43545   0.94095  -0.34230
 C   -0.74205  -1.21963  -0.56601
 H   -0.82369  -2.02004   0.17301
 H   -0.25188  -1.62284  -1.45445
 H   -1.76602  -0.96279  -0.85012
           8
  -79.824066536700002     
 C    0.00000   0.00000   0.00000
 H    0.00000   0.00000   1.09295
 H    1.04871   0.00000  -0.31069
 H   -0.44448   0.93601  -0.34590
 C   -0.73637  -1.21873  -0.55666
 H   -0.51569  -2.11711   0.02537
 H   -0.47484  -1.40966  -1.59996
 H   -1.81992  -1.07694  -0.51043
           8
  -79.825096544499999     
 C    0.00000   0.00000   0.00000
 H    0.00000   0.00000   1.09324
 H    1.04217   0.00000  -0.33031
 H   -0.45150   0.93900  -0.33083
 C   -0.75635  -1.20437  -0.55413
 H   -0.30488  -2.14326  -0.22270
 H   -0.75584  -1.20478  -1.64730
 H   -1.79853  -1.20423  -0.22387
           8
  -79.824077299699994     
 C    0.00000   0.00000   0.00000
 H    0.00000   0.00000   1.09308
 H    1.03646   0.00000  -0.34508
 H   -0.45010   0.94680  -0.31128
 C   -0.78331  -1.18735  -0.55982
 H   -0.18812  -2.10399  -0.54096
 H   -1.05865  -1.01625  -1.60425
 H   -1.70546  -1.36307  -0.00119
           8
  -79.821895478299993     
 C    0.00000   0.00000   0.00000
 H    0.00000   0.00000   1.09259
 H    1.03705   0.00000  -0.34158
 H   -0.44154   0.95258  -0.30448
 C   -0.79400  -1.18528  -0.56759
 H   -0.13608  -1.99982  -0.87970
 H   -1.35867  -0.89230  -1.45662
 H   -1.51021  -1.58233   0.15458
           8
  -79.820720055799995     
 C    0.00000   0.00000   0.00000
 H    0.00000   0.00000   1.09225
 H    1.04431   0.00000  -0.32055
 H   -0.43371   0.94946  -0.32135
 C   -0.77242  -1.20208  -0.57105
 H   -0.13474  -1.83569  -1.19145
 H   -1.61270  -0.88494  -1.19249
 H   -1.17962  -1.83479   0.22092
           8
  -79.821883959499999     
 C    0.00000   0.00000   0.00000
 H    0.00000   0.00000   1.09247
 H    1.04974   0.00000  -0.30513
 H   -0.43543   0.94120  -0.34193
 C   -0.74076  -1.21965  -0.56682
 H   -0.22791  -1.63407  -1.43788
 H   -1.76629  -0.98040  -0.85562
 H   -0.79224  -2.02623   0.16928
           8
  -79.824068428299995     
 C    0.00000   0.00000   0.00000
 H    0.00000   0.00000   1.09299
 H    1.04815   0.00000  -0.31178
 H   -0.44535   0.93596  -0.34530
 C   -0.73388  -1.21943  -0.55779
 H   -0.44654  -1.41892  -1.59330
 H   -1.81857  -1.09504  -0.51832
 H   -0.48549  -2.11835   0.01321
           8
  -79.825096562699997     
 C    0.00000   0.00000   0.00000
 H    0.00000   0.00000   1.09323
 H    1.04200   0.00000  -0.33058
 H   -0.45181   0.93906  -0.33055
 C   -0.75715  -1.20397  -0.55399
 H   -0.75626  -1.20463  -1.64722
 H   -1.79954  -1.20296  -0.22436
 H   -0.30655  -2.14317  -0.22247
           8
  -79.824080245499999     
 C    0.00000   0.00000   0.00000
 H    0.00000   0.00000   1.09299
 H    1.03649   0.00000  -0.34526
 H   -0.44968   0.94704  -0.31137
 C   -0.78675  -1.18606  -0.55824
 H   -1.08817  -1.01275  -1.59445
 H   -1.70673  -1.34599   0.01105
 H   -0.21014  -2.11306  -0.51682
           8
  -79.821897570399997     
 C    0.00000   0.00000   0.00000
 H    0.00000   0.00000   1.09248
 H    1.03714   0.00000  -0.34170
 H   -0.44046   0.95290  -0.30480
 C   -0.79650  -1.18424  -0.56709
 H   -1.38611  -0.89303  -1.43949
 H   -1.50886  -1.56772   0.16804
 H   -0.14952  -2.01582  -0.85398
           8
  -79.820720085100007     
 C    0.00000   0.00000   0.00000
 H    0.00000   0.00000   1.09229
 H    1.04434   0.00000  -0.32038
 H   -0.43398   0.94939  -0.32111
 C   -0.77235  -1.20232  -0.57064
 H   -1.61244  -0.88555  -1.19275
 H   -1.17946  -1.83475   0.22125
 H   -0.13461  -1.83544  -1.19169
           8
  -79.821881885500005     
 C    0.00000   0.00000   0.00000
 H    0.00000   0.00000   1.09259
 H    1.04993   0.00000  -0.30450
 H   -0.43608   0.94093  -0.34151
 C   -0.74163  -1.21873  -0.56770
 H   -1.75653  -0.96370  -0.88185
 H   -0.80282  -2.03473   0.15517
 H   -0.23719  -1.60926  -1.45544
           8
  -79.824065279300001     
 C    0.00000   0.00000   0.00000
 H    0.00000   0.00000   1.09308
 H    1.04834   0.00000  -0.31130
 H   -0.44548   0.93578  -0.34521
 C   -0.73587  -1.21748  -0.55956
 H   -1.81923  -1.07303  -0.54273
 H   -0.49998  -2.12547   0.00009
 H   -0.46169  -1.39412  -1.60338
           8
  -79.825096440600007     
 C    0.00000   0.00000   0.00000
 H    0.00000   0.00000   1.09325
 H    1.04215   0.00000  -0.33036
 H   -0.45127   0.93935  -0.33044
 C   -0.75726  -1.20395  -0.55436
 H   -1.79968  -1.20335  -0.22487
 H   -0.30657  -2.14331  -0.22315
 H   -0.75632  -1.20447  -1.64761
