           8
  -79.821885795300005     
 C    0.00000   0.00000   0.00000
 H    0.00000   0.00000   1.09246
 H    1.05017   0.00000  -0.30391
 H   -0.43545   0.94095  -0.34230
 C   -0.74205  -1.21963  -0.56601
 H   -0.82369  -2.02004   0.17301
 H   -0.25188  -1.62284  -1.45445
 H   -1.76602  -0.96279  -0.85012

