           8
  -79.824078067700000     
 C    0.00000   0.00000   0.00000
 H    0.00000   0.00000   1.09298
 H    1.03665   0.00000  -0.34502
 H   -0.44971   0.94692  -0.31169
 C   -0.78392  -1.18847  -0.55684
 H   -1.69115  -1.37397   0.02380
 H   -0.19060  -2.10598  -0.51002
 H   -1.06779  -1.03385  -1.60048

