           8
  -79.824068428299995     
 C    0.00000   0.00000   0.00000
 H    0.00000   0.00000   1.09299
 H    1.04815   0.00000  -0.31178
 H   -0.44535   0.93596  -0.34530
 C   -0.73388  -1.21943  -0.55779
 H   -0.44654  -1.41892  -1.59330
 H   -1.81857  -1.09504  -0.51832
 H   -0.48549  -2.11835   0.01321

