           8
  -79.825096440600007     
 C    0.00000   0.00000   0.00000
 H    0.00000   0.00000   1.09325
 H    1.04215   0.00000  -0.33036
 H   -0.45127   0.93935  -0.33044
 C   -0.75726  -1.20395  -0.55436
 H   -1.79968  -1.20335  -0.22487
 H   -0.30657  -2.14331  -0.22315
 H   -0.75632  -1.20447  -1.64761

