           8
  -79.821899246599997     
 C    0.00000   0.00000   0.00000
 H    0.00000   0.00000   1.09248
 H    1.03678   0.00000  -0.34248
 H   -0.44115   0.95296  -0.30424
 C   -0.79508  -1.18536  -0.56579
 H   -1.48871  -1.59404   0.17270
 H   -0.13186  -2.00746  -0.84790
 H   -1.36508  -0.91020  -1.45549

