           8
  -79.820720085100007     
 C    0.00000   0.00000   0.00000
 H    0.00000   0.00000   1.09229
 H    1.04434   0.00000  -0.32038
 H   -0.43398   0.94939  -0.32111
 C   -0.77235  -1.20232  -0.57064
 H   -1.61244  -0.88555  -1.19275
 H   -1.17946  -1.83475   0.22125
 H   -0.13461  -1.83544  -1.19169

