           8
  -79.821897570399997     
 C    0.00000   0.00000   0.00000
 H    0.00000   0.00000   1.09248
 H    1.03714   0.00000  -0.34170
 H   -0.44046   0.95290  -0.30480
 C   -0.79650  -1.18424  -0.56709
 H   -1.38611  -0.89303  -1.43949
 H   -1.50886  -1.56772   0.16804
 H   -0.14952  -2.01582  -0.85398

