           8
  -79.825096562699997     
 C    0.00000   0.00000   0.00000
 H    0.00000   0.00000   1.09323
 H    1.04200   0.00000  -0.33058
 H   -0.45181   0.93906  -0.33055
 C   -0.75715  -1.20397  -0.55399
 H   -0.75626  -1.20463  -1.64722
 H   -1.79954  -1.20296  -0.22436
 H   -0.30655  -2.14317  -0.22247

