 %mem=400MW                         
 %chk=tmp
 %NProcShared=          32
 # uwb97xd/aug-cc-pvtz opt=(noeig,intern,maxcyc=50)                     
 # int=ultrafine nosym freq iop(7/33=1) guess=(mix,always)              

 geom            0

           0           1
 C1                                                          
 H2   C1   R1                                                
 H3   C1   R2   H2   A2                                      
 H4   C1   R3   H2   A3   H3   D3                            
 C21 C1 BB H2 ANG1 H3 DH1                                    
 H22 C21 R21 C1 ANG2 H2 DH2                                  
 H23 C21 R22 H22 A22 C1 DH3                                  
 H24 C21 R23 H22 A23 H23 D23                                 

 R1                               1.0863000000000000     
 R2                               1.0866000000000000     
 R3                               1.0866000000000000     
 A2                               112.79870000000000     
 A3                               112.80889999999999     
 D3                               230.87960000000001     
 R21                              1.0863000000000000     
 R22                              1.0866000000000000     
 R23                              1.0866000000000000     
 A22                              112.79460000000000     
 A23                              112.80870000000000     
 D23                              129.12139999999999     
 ANG2                             105.92520000000000     
 DH3                              115.41400000000000     
 DH2                              60.016399999999997     
 DH1                              115.44199999999999     
 ANG1                             105.92749999999999     

 BB                               2.0000000000000000     

