           8
  -79.825096544499999     
 C    0.00000   0.00000   0.00000
 H    0.00000   0.00000   1.09324
 H    1.04217   0.00000  -0.33031
 H   -0.45150   0.93900  -0.33083
 C   -0.75635  -1.20437  -0.55413
 H   -0.30488  -2.14326  -0.22270
 H   -0.75584  -1.20478  -1.64730
 H   -1.79853  -1.20423  -0.22387

