           8
  -79.703656781800007     
 C    0.00000   0.00000   0.00000
 H    0.00000   0.00000   1.07928
 H    0.95673   0.00000  -0.49940
 H   -0.82413   0.48573  -0.49955
 C   -0.67456  -2.47774  -0.40714
 H   -1.63125  -2.47654   0.09244
 H    0.14973  -2.96189   0.09372
 H   -0.67449  -2.48046  -1.48634

