           8
  -79.678349601799994     
 C    0.00000   0.00000   0.00000
 H    0.00000   0.00000   1.07823
 H    0.93404   0.00000  -0.53879
 H   -0.93357  -0.00038  -0.53953
 C    0.07676  -9.99970   0.00924
 H   -0.85237 -10.00456   0.55632
 H    1.01470  -9.98286   0.54095
 H    0.06816 -10.01070  -1.06891

