           8
  -79.681206232600005     
 C    0.00000   0.00000   0.00000
 H    0.00000   0.00000   1.07815
 H    0.93390   0.00000  -0.53883
 H   -0.93321   0.02805  -0.53924
 C   -0.03163  -3.59972  -0.03221
 H   -0.96129  -3.60593   0.51380
 H    0.90580  -3.61441   0.50024
 H   -0.03938  -3.60693  -1.11032

